/*--------------------------------*- C++ -*----------------------------------*\
| =========                 |                                                 |
| \\      /  F ield         | OpenFOAM: The Open Source CFD Toolbox           |
|  \\    /   O peration     | Version:  v2212                                 |
|   \\  /    A nd           | Website:  www.openfoam.com                      |
|    \\/     M anipulation  |                                                 |
\*---------------------------------------------------------------------------*/
FoamFile
{
    version     2.0;
    format      ascii;
    class       dictionary;
    object      setExprBoundaryFieldsDict;
}
// * * * * * * * * * * * * * * * * * * * * * * * * * * * * * * * * * * * * * //

pattern
{
    field   zeta;
    dimensions  [0 0 -1 0 0 0 0];

    expressions
    (
        {
            patch   upper;
            target  value;
            expression #{ (pos().y()) #};
        }
        {
            patch    fixedWalls1;
            target  value;
            expression #{ (pos().y()) #};
        }
        {
            patch    fixedWalls2;
            target  value;
            expression #{ (pos().y()) #};
        }
        {
            patch    fixedWalls3;
            target  value;
            expression #{ (pos().y()) #};
        }
    );
}


// ************************************************************************* //
